data/input/matpower/sample_769.m
function mpc = powergrid
mpc.version = '2';
mpc.baseMVA = 100;
mpc.bus = [
	1	1	451.939426	221.681900	0	-400	1	1.009715	1.604160	130	1	1.100000	0.900000;
	2	1	200.989326	16.196110	0	0	1	1.062071	3.444979	130	1	1.100000	0.900000;
	3	1	559.955650	96.287483	0	0	1	0.993367	1.040433	130	1	1.100000	0.900000;
	4	1	694.913951	284.017511	0	0	1	0.990222	-9.235955	130	1	1.100000	0.900000;
	5	1	264.739088	76.303596	0	0	1	0.987857	-9.741654	130	1	1.100000	0.900000;
	6	1	238.350631	173.641559	0	0	1	0.958397	-6.698866	130	1	1.100000	0.900000;
	7	1	4.081049	-2.159890	0	0	1	1.004022	-5.859247	130	1	1.100000	0.900000;
	8	1	87.514851	62.787305	0	0	1	1.026605	-8.397729	130	1	1.100000	0.900000;
	9	1	54.030569	-18.910524	0	0	1	1.030250	-8.678243	130	1	1.100000	0.900000;
	10	1	638.439200	116.642805	0	0	1	1.031852	-11.069366	220	1	1.100000	0.900000;
	11	1	265.038575	91.394154	0	0	1	0.996446	-3.514888	220	1	1.100000	0.900000;
	12	1	415.130016	129.354807	0	-400	1	0.964044	11.015983	400	1	1.100000	0.900000;
	13	1	216.199686	-98.635043	0	0	1	1.004603	18.901770	400	1	1.100000	0.900000;
	14	1	436.056085	156.939699	0	0	1	1.061737	-10.112296	400	1	1.100000	0.900000;
	15	1	143.048661	-5.170553	0	0	1	1.041349	-6.965255	400	1	1.100000	0.900000;
	16	1	608.956728	395.284980	0	0	1	1.009680	-8.995030	400	1	1.100000	0.900000;
	17	1	182.576738	-70.221441	0	0	1	1.009078	-8.774127	400	1	1.100000	0.900000;
	18	1	458.223966	259.709722	0	0	1	0.993903	-6.812019	400	1	1.100000	0.900000;
	19	1	524.119457	346.417416	0	0	1	0.990428	-8.986488	400	1	1.100000	0.900000;
	20	1	44.615300	28.438832	0	0	1	1.039373	-4.282506	400	1	1.100000	0.900000;
	21	1	324.091064	183.980351	0	0	1	1.018543	-1.046897	400	1	1.100000	0.900000;
	22	1	53.371151	14.435218	0	0	1	1.013395	5.071725	400	1	1.100000	0.900000;
	23	1	0	0	0	-100	1	0.957374	4.187416	400	1	1.100000	0.900000;
	24	1	0	0	0	0	1	1.012495	4.289240	130	1	1.100000	0.900000;
	25	1	0	0	0	0	1	0.993228	-9.262043	130	1	1.100000	0.900000;
	26	1	0	0	0	0	1	0.949589	3.679865	400	1	1.100000	0.900000;
	27	1	0	0	0	0	1	1.034690	-2.766041	400	1	1.100000	0.900000;
	28	1	0	0	0	0	1	0.957882	-5.564075	400	1	1.100000	0.900000;
	29	1	0	0	0	0	1	1.031106	-7.734859	400	1	1.100000	0.900000;
	30	1	0	0	0	0	1	0.961591	-9.913681	400	1	1.100000	0.900000;
	31	1	0	0	0	0	1	1.011579	-8.832106	400	1	1.100000	0.900000;
	32	1	0	0	0	0	1	1.017881	-11.236608	400	1	1.100000	0.900000;
	33	1	0	0	0	0	1	1.017881	-11.236608	400	1	1.100000	0.900000;
	34	1	0	0	0	0	1	1.002192	-6.630037	400	1	1.100000	0.900000;
	35	1	0	0	0	0	1	0.982724	-9.041322	400	1	1.100000	0.900000;
	36	1	0	0	0	0	1	1.035401	-8.481730	400	1	1.100000	0.900000;
	37	1	0	0	0	0	1	1.033626	-8.444252	400	1	1.100000	0.900000;
	38	2	0	0	0	0	1	0	3.444979	15	1	1.100000	0.900000;
	39	2	0	0	0	0	1	1	5.264669	15	1	1.100000	0.900000;
	40	2	0	0	0	0	1	1	7.353576	15	1	1.100000	0.900000;
	41	2	0	0	0	0	1	0	-9.262043	15	1	1.100000	0.900000;
	42	2	0	0	0	0	1	1	-3.907252	15	1	1.100000	0.900000;
	43	2	0	0	0	0	1	1	-0.859927	15	1	1.100000	0.900000;
	44	2	0	0	0	0	1	1	8.747387	15	1	1.100000	0.900000;
	45	2	0	0	0	0	1	1	2.100343	15	1	1.100000	0.900000;
	46	2	0	0	0	0	1	1	9.573153	15	1	1.100000	0.900000;
	47	2	0	0	0	0	1	1	10.032615	15	1	1.100000	0.900000;
	48	2	0	0	0	0	1	1	2.641025	15	1	1.100000	0.900000;
	49	2	0	0	0	0	1	0	-8.832106	15	1	1.100000	0.900000;
	50	2	0	0	0	0	1	0	-10.112296	15	1	1.100000	0.900000;
	51	2	0	0	0	0	1	1	-1.592756	15	1	1.100000	0.900000;
	52	3	0	0	0	0	1	1	0	15	1	1.000000	1.000000;
	53	2	0	0	0	0	1	1	-1.182356	15	1	1.100000	0.900000;
	54	2	0	0	0	0	1	1	-3.336897	15	1	1.100000	0.900000;
	55	2	0	0	0	0	1	0	-8.986488	15	1	1.100000	0.900000;
	56	2	0	0	0	0	1	1	-0.251551	15	1	1.100000	0.900000;
	57	2	0	0	0	0	1	1	10.592762	15	1	1.100000	0.900000;
	58	2	0	0	0	0	1	1	10.592762	15	1	1.100000	0.900000;
	59	2	0	0	0	0	1	0	11.015983	15	1	1.100000	0.900000;
	60	2	0	0	0	0	1	1	21.043081	15	1	1.100000	0.900000;
	61	2	0	0	0	0	1	0	-9.741654	15	1	1.100000	0.900000;
];
mpc.gen = [
	52	0	0	1840.000000	-540.000000	1	1	1	2800.000000	10.000000	0	0	0	0	0	0	0	0	0	0	0;
	38	0	0	720.000000	-720.000000	0	100	0	720.000000	10.000000	0	0	0	0	0	0	0	0	0	0	0;
	39	292.685840	0	540.000000	-540.000000	1	100	1	540.000000	10.000000	0	0	0	0	0	0	0	0	0	0	0;
	40	252.579214	0	630.000000	-630.000000	1	100	1	630.000000	10.000000	0	0	0	0	0	0	0	0	0	0	0;
	41	0	0	540.000000	-540.000000	0	100	0	540.000000	10.000000	0	0	0	0	0	0	0	0	0	0	0;
	42	153.268952	0	325.000000	-225.000000	1	100	1	475.000000	10.000000	0	0	0	0	0	0	0	0	0	0	0;
	43	260.000000	0	560.000000	-360.000000	1	100	1	560.000000	10.000000	0	0	0	0	0	0	0	0	0	0	0;
	44	337.594078	0	360.000000	-280.000000	1	100	1	380.000000	10.000000	0	0	0	0	0	0	0	0	0	0	0;
	45	552.500000	0	965.000000	-765.000000	1	100	1	965.000000	10.000000	0	0	0	0	0	0	0	0	0	0	0;
	46	650.000000	0	900.000000	-900.000000	1	100	1	900.000000	10.000000	0	0	0	0	0	0	0	0	0	0	0;
	47	520.000000	0	720.000000	-720.000000	1	100	1	720.000000	10.000000	0	0	0	0	0	0	0	0	0	0	0;
	48	195.000000	0	570.000000	-370.000000	1	100	1	570.000000	10.000000	0	0	0	0	0	0	0	0	0	0	0;
	49	0	0	515.000000	-415.000000	0	100	0	575.000000	10.000000	0	0	0	0	0	0	0	0	0	0	0;
	50	0	0	570.000000	-570.000000	0	100	0	0.000000	-0.000000	0	0	0	0	0	0	0	0	0	0	0;
	51	455.000000	0	630.000000	-630.000000	1	100	1	630.000000	10.000000	0	0	0	0	0	0	0	0	0	0	0;
	53	390.000000	0	580.000000	-540.000000	1	100	1	540.000000	10.000000	0	0	0	0	0	0	0	0	0	0	0;
	54	455.000000	0	630.000000	-630.000000	1	100	1	630.000000	10.000000	0	0	0	0	0	0	0	0	0	0	0;
	55	0	0	630.000000	-630.000000	0	100	0	630.000000	10.000000	0	0	0	0	0	0	0	0	0	0	0;
	56	56.553398	0	540.000000	-540.000000	1	100	1	540.000000	10.000000	0	0	0	0	0	0	0	0	0	0	0;
	57	390.000000	0	540.000000	-540.000000	1	100	1	540.000000	10.000000	0	0	0	0	0	0	0	0	0	0	0;
	58	390.000000	0	540.000000	-540.000000	1	100	1	540.000000	10.000000	0	0	0	0	0	0	0	0	0	0	0;
	59	0	0	520.000000	-450.000000	0	100	0	560.000000	10.000000	0	0	0	0	0	0	0	0	0	0	0;
	60	1126.199686	0	4000.000000	-2050.000000	1	100	1	4500.000000	10.000000	0	0	0	0	0	0	0	0	0	0	0;
	61	0	0	250.000000	-250.000000	0	100	0	0.000000	-0.000000	0	0	0	0	0	0	0	0	0	0	0;
];
mpc.branch = [
	1	3	0.010000	0.070000	0.013804	175.000000	250	250	0	0	1	-360	360;
	1	3	0.010000	0.070000	0.013804	175.000000	250	250	0	0	1	-360	360;
	2	24	0.014024	0.090000	0.018052	175.000000	250	250	0	0	1	-360	360;
	2	24	0.014024	0.090000	0.018052	175.000000	250	250	0	0	1	-360	360;
	3	24	0.006982	0.050000	0.010088	175.000000	250	250	0	0	1	-360	360;
	3	24	0.006982	0.050000	0.010088	175.000000	250	250	0	0	1	-360	360;
	25	4	0.030000	0.200000	0.030263	175.000000	250	250	0	0	1	-360	360;
	25	4	0.030000	0.200000	0.030263	175.000000	250	250	0	0	1	-360	360;
	5	7	0.010000	0.060000	0.012211	175.000000	250	250	0	0	1	-360	360;
	5	7	0.010000	0.060000	0.012211	175.000000	250	250	0	0	1	-360	360;
	5	9	0.014970	0.120000	0.024954	175.000000	250	250	0	0	1	-360	360;
	5	9	0.014970	0.120000	0.024954	175.000000	250	250	0	0	1	-360	360;
	6	8	0.037988	0.280000	0.059995	175.000000	250	250	0	0	1	-360	360;
	6	8	0.037988	0.280000	0.059995	175.000000	250	250	0	0	1	-360	360;
	6	9	0.050000	0.300000	0.059995	175.000000	250	250	0	0	1	-360	360;
	7	8	0.010000	0.080000	0.015928	175.000000	250	250	0	0	1	-360	360;
	7	8	0.010000	0.080000	0.015928	175.000000	250	250	0	0	1	-360	360;
	10	11	0.012004	0.090000	0.015205	250.000000	250	250	0	0	1	-360	360;
	10	11	0.012004	0.090000	0.015205	250.000000	250	250	0	0	1	-360	360;
	26	23	0.001000	0.008000	0.201062	700.000000	250	250	0	0	1	-360	360;
	26	27	0.006000	0.060000	1.799488	700.000000	250	250	0	0	1	-360	360;
	26	28	0.004000	0.040000	1.201344	700.000000	250	250	0	0	1	-360	360;
	26	12	0.005000	0.045000	1.402400	700.000000	250	250	0	0	1	-360	360;
	23	28	0.004000	0.035000	1.050560	700.000000	250	250	0	0	1	-360	360;
	23	12	0.005000	0.050000	1.497920	700.000000	250	250	0	0	1	-360	360;
	27	29	0.004000	0.040000	1.201344	700.000000	250	250	0	0	1	-360	360;
	27	30	0.010000	0.100000	3.000864	700.000000	250	250	0	0	1	-360	360;
	30	15	0	-0.040000	0	700.000000	250	250	0	0	1	-360	360;
	28	31	0.004000	0.040000	1.201344	700.000000	250	250	0	0	1	-360	360;
	28	31	0.004000	0.040000	1.201344	700.000000	250	250	0	0	1	-360	360;
	31	29	0.001000	0.010000	0.301594	700.000000	250	250	0	0	1	-360	360;
	31	32	0.006000	0.080000	2.397664	700.000000	250	250	0	0	1	-360	360;
	32	14	0	-0.040000	0	700.000000	250	250	0	0	1	-360	360;
	31	33	0.006000	0.080000	2.397664	700.000000	250	250	0	0	1	-360	360;
	33	14	0	-0.040000	0	700.000000	250	250	0	0	1	-360	360;
	29	34	0.010000	0.066669	2.000576	700.000000	250	250	0	0	1	-360	360;
	34	15	0	-0.026669	0	700.000000	250	250	0	0	1	-360	360;
	29	35	0.006000	0.080000	2.397664	700.000000	250	250	0	0	1	-360	360;
	35	36	0	-0.030000	0	700.000000	250	250	0	0	1	-360	360;
	14	36	0.003000	0.030000	0.899744	700.000000	250	250	0	0	1	-360	360;
	14	20	0.006000	0.045000	1.301888	700.000000	250	250	0	0	1	-360	360;
	15	16	0.002000	0.015000	0.497632	700.000000	250	250	0	0	1	-360	360;
	15	36	0.002000	0.020000	0.598176	700.000000	250	250	0	0	1	-360	360;
	16	36	0.001000	0.010000	0.301594	700.000000	250	250	0	0	1	-360	360;
	16	17	0.001000	0.010000	0.301594	700.000000	250	250	0	0	1	-360	360;
	16	18	0.002000	0.020000	0.598176	700.000000	250	250	0	0	1	-360	360;
	36	37	0.002000	0.020000	0.598176	700.000000	250	250	0	0	1	-360	360;
	36	37	0.002000	0.020000	0.598176	700.000000	250	250	0	0	1	-360	360;
	37	19	0.004000	0.040000	1.201344	700.000000	250	250	0	0	1	-360	360;
	37	19	0.004000	0.040000	1.201344	700.000000	250	250	0	0	1	-360	360;
	37	21	0.011000	0.080000	2.397664	700.000000	250	250	0	0	1	-360	360;
	17	18	0.001000	0.015000	0.497632	700.000000	250	250	0	0	1	-360	360;
	20	21	0.002000	0.020000	0.598176	700.000000	250	250	0	0	1	-360	360;
	21	22	0.003000	0.030000	0.899744	700.000000	250	250	0	0	1	-360	360;
	21	22	0.003000	0.030000	0.899744	700.000000	250	250	0	0	1	-360	360;
	12	13	0.003000	0.030000	3.000864	700.000000	250	250	0	0	1	-360	360;
	12	13	0.003000	0.030000	3.000864	700.000000	250	250	0	0	1	-360	360;
	2	38	0	0.018750	0	800	250	250	0	0	1	-360	360;
	3	39	0	0.025000	0	600	250	250	0	0	1	-360	360;
	24	40	0	0.021429	0	700	250	250	0	0	1	-360	360;
	25	41	0	0.025000	0	600	250	250	0	0	1	-360	360;
	4	42	0	0.060000	0	1250	250	250	0	0	1	-360	360;
	6	43	0	0.037500	0	400	250	250	0	0	1	-360	360;
	7	44	0	0.075000	0	1200	250	250	0	0	1	-360	360;
	11	45	0	0.017647	0	850	250	250	0	0	1	-360	360;
	26	46	0	0.015000	0	1000	250	250	0	0	1	-360	360;
	23	47	0	0.018750	0	800	250	250	0	0	1	-360	360;
	27	48	0	0.050000	0	300	250	250	0	0	1	-360	360;
	31	49	0	0.042857	0	1350	250	250	0	0	1	-360	360;
	14	50	0	0.017391	0	575	250	250	0	0	1	-360	360;
	15	51	0	0.021429	0	700	250	250	0	0	1	-360	360;
	18	52	0	0.025000	0	600	250	250	0	0	1	-360	360;
	18	53	0	0.025000	0	600	250	250	0	0	1	-360	360;
	19	54	0	0.021429	0	700	250	250	0	0	1	-360	360;
	19	55	0	0.021429	0	700	250	250	0	0	1	-360	360;
	21	56	0	0.025000	0	600	250	250	0	0	1	-360	360;
	22	57	0	0.025000	0	600	250	250	0	0	1	-360	360;
	22	58	0	0.025000	0	600	250	250	0	0	1	-360	360;
	12	59	0	0.030000	0	500	250	250	0	0	1	-360	360;
	13	60	0	0.003333	0	4500	250	250	0	0	1	-360	360;
	26	1	0	0.008000	0	1250	250	250	0.892860	0	1	-360	360;
	23	2	0	0.008000	0	1250	250	250	0.892860	0	1	-360	360;
	28	4	0	0.012000	0	833.300000	250	250	0.934580	0	1	-360	360;
	31	10	0	0.012000	0	833.300000	250	250	0.952380	0	1	-360	360;
	36	8	0	0.010000	0	1000	250	250	0	0	1	-360	360;
	36	8	0	0.010000	0	1000	250	250	0	0	1	-360	360;
	37	9	0	0.010000	0	1000	250	250	0	0	1	-360	360;
	37	9	0	0.010000	0	1000	250	250	0	0	1	-360	360;
	5	61	0	0.025000	0	1200	250	250	0	0	1	-360	360;
];
